/*--------------------------------*- C++ -*----------------------------------*\
| =========                 |                                                 |
| \\      /  F ield         | OpenFOAM: The Open Source CFD Toolbox           |
|  \\    /   O peration     | Version:  2512                                  |
|   \\  /    A nd           | Website:  www.openfoam.com                      |
|    \\/     M anipulation  |                                                 |
\*---------------------------------------------------------------------------*/
FoamFile
{
    version     2.0;
    format      ascii;
    arch        "LSB;label=32;scalar=64";
    class       polyBoundaryMesh;
    location    "constant/polyMesh";
    object      boundary;
}
// * * * * * * * * * * * * * * * * * * * * * * * * * * * * * * * * * * * * * //

5
(
    left
    {
        type            patch;
        nFaces          4;
        startFace       276;
    }
    right
    {
        type            patch;
        nFaces          4;
        startFace       280;
    }
    top
    {
        type            patch;
        nFaces          40;
        startFace       284;
    }
    bottom
    {
        type            patch;
        nFaces          40;
        startFace       324;
    }
    frontAndBack
    {
        type            empty;
        inGroups        1(empty);
        nFaces          320;
        startFace       364;
    }
)

// ************************************************************************* //
