FoamFile
{
    version     2.0;
    format      ascii;
    class       dictionary;
    object      solidProperties;
}

solidModel unsLinearGeometry;

unsLinearGeometryCoeffs
{
    nCorrectors         200;
    solutionTolerance   1e-06;
    alternativeTolerance 1e-07;
    materialTolerance   1e-05;
    infoFrequency       10;
}
